Circuit: * C:\Users\noroc\STM32CubeIDE\workspace_1.12.0\NixieTubeClock\LTspice\Draft1.asc

U1:v3: Missing value, assumed 0V @ DC
Direct Newton iteration failed to find .op point.  (Use ".option noopiter" to skip.)
Starting Gmin stepping
Gmin = 10
Gmin = 1.07374
vernier = 0.5
vernier = 0.25
vernier = 0.125
vernier = 0.0625
Gmin = 0.995033
vernier = 0.03125
vernier = 0.015625
vernier = 0.0078125
Gmin = 0.979648
vernier = 0.00390625
vernier = 0.00195312
vernier = 0.000976562
vernier = 0.000488281
Gmin = 0
Gmin stepping failed

Starting source stepping with srcstepmethod=0
Source Step = 3.0303%
Source Step = 33.3333%
Source Step = 50.1894%
Source Step = 52.0833%
Source Step = 53.9773%
Source Step = 54.9953%
Source Step = 55.0308%
Source Step = 55.0604%
Source Step = 55.09%
Source Step = 55.1196%
Source Step = 55.1491%
vernier = 0.00146484
Source Step = 55.1876%
Source Step = 55.232%
Source Step = 55.2764%
Source Step = 55.3208%
Source Step = 55.3652%
vernier = 0.00219727
Source Step = 55.4207%
Source Step = 55.4872%
Source Step = 55.5538%
Source Step = 55.6204%
Source Step = 55.687%
vernier = 0.0032959
Source Step = 55.7669%
Source Step = 55.8668%
Source Step = 55.9666%
Source Step = 56.0665%
Source Step = 56.1664%
vernier = 0.00494385
Source Step = 56.2813%
Source Step = 56.4311%
Source Step = 56.5809%
Source Step = 56.7307%
Source Step = 56.8805%
vernier = 0.00741577
Source Step = 57.0453%
Source Step = 57.27%
Source Step = 57.4947%
Source Step = 57.7195%
Source Step = 57.9442%
vernier = 0.0111237
Source Step = 58.1801%
Source Step = 58.5172%
Source Step = 58.8543%
Source Step = 59.1914%
Source Step = 59.5285%
Source Step = 59.8655%
vernier = 0.0166855
Source Step = 60.033%
Source Step = 60.0646%
Source Step = 60.0962%
Source Step = 60.1278%
Source Step = 60.1594%
vernier = 0.00156426
Source Step = 60.1958%
Source Step = 60.2432%
Source Step = 60.2906%
Source Step = 60.338%
Source Step = 60.3854%
vernier = 0.0023464
Source Step = 60.4375%
Source Step = 60.5086%
Source Step = 60.5797%
Source Step = 60.6508%
Source Step = 60.7219%
vernier = 0.00351959
Source Step = 60.7966%
Source Step = 60.9033%
Source Step = 61.0099%
Source Step = 61.1166%
Source Step = 61.2232%
Source Step = 61.3299%
vernier = 0.00527939
Source Step = 61.4899%
Source Step = 61.6498%
Source Step = 61.8098%
Source Step = 61.9698%
Source Step = 62.1298%
vernier = 0.00791909
Source Step = 62.3618%
Source Step = 62.6017%
Source Step = 62.8417%
Source Step = 63.0817%
Source Step = 63.3216%
vernier = 0.0118786
Source Step = 63.6576%
Source Step = 64.0176%
Source Step = 64.3775%
Source Step = 64.7375%
Source Step = 65.0974%
vernier = 0.0178179
Source Step = 65.5834%
Source Step = 66.1233%
Source Step = 66.6633%
Source Step = 67.2032%
Source Step = 67.7431%
vernier = 0.0267269
Source Step = 68.4451%
Source Step = 69.255%
Source Step = 70.0649%
Source Step = 70.8748%
Source Step = 71.6847%
vernier = 0.0400904
Source Step = 72.6971%
Source Step = 73.9119%
Source Step = 75.1268%
Source Step = 76.3416%
Source Step = 77.5565%
vernier = 0.0601356
Source Step = 79.0143%
Source Step = 80.8366%
Source Step = 82.6589%
Source Step = 84.4812%
Source Step = 86.3035%
vernier = 0.0902034
Source Step = 88.3991%
Source Step = 90.0435%
Source Step = 90.0862%
Source Step = 90.1289%
Source Step = 90.1716%
Source Step = 90.2143%
Source Step = 90.257%
Source Step = 90.2997%
Source Step = 90.3424%
Source Step = 90.3851%
Source Step = 90.4279%
Source Step = 90.4706%
Source Step = 90.5133%
Source Step = 90.556%
Source Step = 90.5987%
Source Step = 90.6414%
Source Step = 90.6841%
Source Step = 90.7268%
Source Step = 90.7695%
Source Step = 90.8122%
Source Step = 90.855%
Source Step = 90.8977%
Source Step = 90.9404%
Source Step = 90.9831%
Source Step = 91.0258%
Source Step = 91.0685%
Source Step = 91.1112%
Source Step = 91.1539%
Source Step = 91.1966%
Source Step = 91.2393%
Source Step = 91.282%
Source Step = 91.3248%
Source Step = 91.3675%
Source Step = 91.4102%
Source Step = 91.4529%
Source Step = 91.4956%
Source Step = 91.5383%
Source Step = 91.581%
Source Step = 91.6237%
Source Step = 91.6664%
Source Step = 91.7091%
Source Step = 91.7519%
Source Step = 91.7946%
Source Step = 91.8373%
Source Step = 91.88%
Source Step = 91.9227%
Source Step = 91.9654%
Source Step = 92.0081%
Source Step = 92.0508%
Source Step = 92.0935%
Source Step = 92.1362%
Source Step = 92.179%
Source Step = 92.2217%
Source Step = 92.2644%
Source Step = 92.3071%
Source Step = 92.3498%
Source Step = 92.3925%
Source Step = 92.4352%
Source Step = 92.4779%
Source Step = 92.5206%
Source Step = 92.5633%
Source Step = 92.6061%
Source Step = 92.6488%
Source Step = 92.6915%
Source Step = 92.7342%
Source Step = 92.7769%
Source Step = 92.8196%
Source Step = 92.8623%
Source Step = 92.905%
Source Step = 92.9477%
Source Step = 92.9904%
Source Step = 93.0332%
Source Step = 93.0759%
Source Step = 93.1186%
Source Step = 93.1613%
Source Step = 93.204%
Source Step = 93.2467%
Source Step = 93.2894%
Source Step = 93.3321%
Source Step = 93.3748%
Source Step = 93.4175%
Source Step = 93.4603%
Source Step = 93.503%
Source Step = 93.5457%
Source Step = 93.5884%
Source Step = 93.6311%
Source Step = 93.6738%
Source Step = 93.7165%
Source Step = 93.7592%
Source Step = 93.8019%
Source Step = 93.8446%
Source Step = 93.8874%
Source Step = 93.9301%
Source Step = 93.9728%
Source Step = 94.0155%
Source Step = 94.0582%
Source Step = 94.1009%
Source Step = 94.1436%
Source Step = 94.1863%
Source Step = 94.229%
Source Step = 94.2717%
Source Step = 94.3145%
Source Step = 94.3572%
Source Step = 94.3999%
Source Step = 94.4426%
Source Step = 94.4853%
Source Step = 94.528%
Source Step = 94.5707%
Source Step = 94.6134%
Source Step = 94.6561%
Source Step = 94.6988%
Source Step = 94.7416%
Source Step = 94.7843%
Source Step = 94.827%
Source Step = 94.8697%
Source Step = 94.9124%
Source Step = 94.9551%
Source Step = 94.9978%
Source Step = 95.0405%
Source Step = 95.0832%
Source Step = 95.1259%
Source Step = 95.1687%
Source Step = 95.2114%
Source Step = 95.2541%
Source Step = 95.2968%
Source Step = 95.3395%
Source Step = 95.3822%
Source Step = 95.4249%
Source Step = 95.4676%
Source Step = 95.5103%
Source Step = 95.553%
Source Step = 95.5958%
Source Step = 95.6385%
Source Step = 95.6812%
Source Step = 95.7239%
Source Step = 95.7666%
Source Step = 95.8093%
Source Step = 95.852%
Source Step = 95.8947%
Source Step = 95.9374%
Source Step = 95.9801%
Source Step = 96.0229%
Source Step = 96.0656%
Source Step = 96.1083%
Source Step = 96.151%
Source Step = 96.1937%
Source Step = 96.2364%
Source Step = 96.2791%
Source Step = 96.3218%
Source Step = 96.3645%
Source Step = 96.4072%
Source Step = 96.45%
Source Step = 96.4927%
Source Step = 96.5354%
Source Step = 96.5781%
Source Step = 96.6208%
Source Step = 96.6635%
Source Step = 96.7062%
Source Step = 96.7489%
Source Step = 96.7916%
Source Step = 96.8343%
Source Step = 96.877%
Source Step = 96.9198%
Source Step = 96.9625%
Source Step = 97.0052%
Source Step = 97.0479%
Source Step = 97.0906%
Source Step = 97.1333%
Source Step = 97.176%
Source Step = 97.2187%
Source Step = 97.2614%
Source Step = 97.3041%
Source Step = 97.3469%
Source Step = 97.3896%
Source Step = 97.4323%
Source Step = 97.475%
Source Step = 97.5177%
Source Step = 97.5604%
Source Step = 97.6031%
Source Step = 97.6458%
Source Step = 97.6885%
Source Step = 97.7312%
Source Step = 97.774%
Source Step = 97.8167%
Source Step = 97.8594%
Source Step = 97.9021%
Source Step = 97.9448%
Source Step = 97.9875%
Source Step = 98.0302%
Source Step = 98.0729%
Source Step = 98.1156%
Source Step = 98.1583%
Source Step = 98.2011%
Source Step = 98.2438%
Source Step = 98.2865%
Source Step = 98.3292%
Source Step = 98.3719%
Source Step = 98.4146%
Source Step = 98.4573%
Source Step = 98.5%
Source Step = 98.5427%
Source Step = 98.5854%
Source Step = 98.6282%
Source Step = 98.6709%
Source Step = 98.7136%
Source Step = 98.7563%
Source Step = 98.799%
Source Step = 98.8417%
Source Step = 98.8844%
Source Step = 98.9271%
Source Step = 98.9698%
Source Step = 99.0125%
Source Step = 99.0553%
Source Step = 99.098%
Source Step = 99.1407%
Source Step = 99.1834%
Source Step = 99.2261%
Source Step = 99.2688%
Source Step = 99.3115%
Source Step = 99.3542%
Source Step = 99.3969%
Source Step = 99.4396%
Source Step = 99.4824%
Source Step = 99.5251%
Source Step = 99.5678%
Source Step = 99.6105%
Source Step = 99.6532%
Source Step = 99.6959%
Source Step = 99.7386%
Source Step = 99.7813%
Source Step = 99.824%
Source Step = 99.8667%
Source Step = 99.9095%
Source Step = 99.9522%
Source Step = 99.9949%
Source Step = 100%
Source Step = 100%
Source Step = 100%
Source Step = 100%
Source Step = 100%
Source Step = 100%
Source Step = 100%
Source Step = 100%
Source Step = 100%
Source Step = 100%
Source Step = 100%
Source Step = 100%
Source Step = 100%
Source Step = 100%
Source Step = 100%
Source Step = 100%
Source Step = 100%
Source Step = 100%
Source Step = 100%
Source Step = 100%
Source Step = 100%
Source Step = 100%
Source Step = 100%
Source Step = 100%
Source Step = 100%
Source Step = 100%
Source Step = 100%
Source Step = 100%
Source Step = 100%
Source Step = 100%
Source Step = 100%
Source Step = 100%
Source Step = 100%
Source Step = 100%
Source Step = 100%
Source Step = 100%
Source Step = 100%
Source Step = 100%
Source Step = 100%
Source Step = 100%
Source Step = 100%
Source Step = 100%
Source Step = 100%
Source Step = 100%
Source Step = 100%
Source Step = 100%
Source Step = 100%
Source Step = 100%
Source Step = 100%
Source Step = 100%
Source Step = 100%
Source Step = 100%
Source Step = 100%
Source Step = 100%
Source Step = 100%
Source Step = 100%
Source Step = 100%
Source Step = 100%
Source Step = 100%
Source Step = 100%
Source Step = 100%
Source Step = 100%
Source Step = 100%
Source Step = 100%
Source Step = 100%
Source Step = 100%
Source Step = 100%
Source Step = 100%
Source Step = 100%
Source Step = 100%
Source Step = 100%
Source Step = 100%
Source Step = 100%
Source Step = 100%
Source Step = 100%
Source Step = 100%
Source Step = 100%
Source Step = 100%
Source Step = 100%
Source Step = 100%
Source Step = 100%
Source Step = 100%
Source Step = 100%
Source Step = 100%
Source Step = 100%
Source Step = 100%
Source Step = 100%
Source Step = 100%
Source Step = 100%
Source Step = 100%
Source Step = 100%
Source Step = 100%
Source Step = 100%
Source Step = 100%
Source Step = 100%
Source Step = 100%
Source Step = 100%
Source Step = 100%
Source Step = 100%
Source Step = 100%
Source Step = 100%
Source Step = 100%
Source Step = 100%
Source Step = 100%
Source Step = 100%
Source Step = 100%
Source stepping aborted.
Starting source stepping with srcstepmethod=1
Source Step = 3.0303%
Source Step = 33.3333%
Source Step = 50.1894%
vernier = 0.015625
Source Step = 50.4735%
Source Step = 50.947%
Source Step = 51.4205%
Source Step = 51.8939%
Source Step = 52.3674%
vernier = 0.0234375
Source Step = 53.054%
Source Step = 53.7642%
Source Step = 54.4744%
Source Step = 55.1847%
Source Step = 55.8949%
vernier = 0.0351562
Source Step = 56.8892%
Source Step = 57.9545%
Source Step = 59.0199%
Source Step = 60.0852%
Source Step = 61.1506%
vernier = 0.0527344
Source Step = 62.5888%
Source Step = 64.1868%
Source Step = 65.7848%
Source Step = 67.3828%
Source Step = 68.9808%
vernier = 0.0791016
Source Step = 71.0582%
Source Step = 73.4553%
Source Step = 75.8523%
Source Step = 78.2493%
Source Step = 80.6463%
vernier = 0.118652
Source Step = 83.6426%
Source Step = 87.2381%
Source Step = 90.8336%
Source Step = 91.2269%
Source Step = 91.2831%
Source Step = 91.3393%
Source Step = 91.3954%
Source Step = 91.4516%
Source Step = 91.5078%
Source Step = 91.564%
Source Step = 91.6202%
Source Step = 91.6763%
Source Step = 91.7325%
Source Step = 91.7887%
Source Step = 91.8449%
Source Step = 91.9011%
Source Step = 91.9572%
Source Step = 92.0134%
Source Step = 92.0696%
Source Step = 92.1258%
Source Step = 92.182%
Source Step = 92.2381%
Source Step = 92.2943%
Source Step = 92.3505%
Source Step = 92.4067%
Source Step = 92.4629%
Source Step = 92.519%
Source Step = 92.5752%
Source Step = 92.6314%
Source Step = 92.6876%
Source Step = 92.7438%
Source Step = 92.7999%
Source Step = 92.8561%
Source Step = 92.9123%
Source Step = 92.9685%
Source Step = 93.0247%
Source Step = 93.0808%
Source Step = 93.137%
Source Step = 93.1932%
Source Step = 93.2494%
Source Step = 93.3056%
Source Step = 93.3617%
Source Step = 93.4179%
Source Step = 93.4741%
Source Step = 93.5303%
Source Step = 93.5865%
Source Step = 93.6426%
Source Step = 93.6988%
Source Step = 93.755%
Source Step = 93.8112%
Source Step = 93.8674%
Source Step = 93.9235%
Source Step = 93.9797%
Source Step = 94.0359%
Source Step = 94.0921%
Source Step = 94.1483%
Source Step = 94.2044%
Source Step = 94.2606%
Source Step = 94.3168%
Source Step = 94.373%
Source Step = 94.4292%
Source Step = 94.4853%
Source Step = 94.5415%
Source Step = 94.5977%
Source Step = 94.6539%
Source Step = 94.7101%
Source Step = 94.7662%
Source Step = 94.8224%
Source Step = 94.8786%
Source Step = 94.9348%
Source Step = 94.991%
Source Step = 95.0471%
Source Step = 95.1033%
Source Step = 95.1595%
Source Step = 95.2157%
Source Step = 95.2719%
Source Step = 95.328%
Source Step = 95.3842%
Source Step = 95.4404%
Source Step = 95.4966%
Source Step = 95.5528%
Source Step = 95.6089%
Source Step = 95.6651%
Source Step = 95.7213%
Source Step = 95.7775%
Source Step = 95.8337%
Source Step = 95.8898%
Source Step = 95.946%
Source Step = 96.0022%
Source Step = 96.0584%
Source Step = 96.1146%
Source Step = 96.1707%
Source Step = 96.2269%
Source Step = 96.2831%
Source Step = 96.3393%
Source Step = 96.3955%
Source Step = 96.4516%
Source Step = 96.5078%
Source Step = 96.564%
Source Step = 96.6202%
Source Step = 96.6764%
Source Step = 96.7325%
Source Step = 96.7887%
Source Step = 96.8449%
Source Step = 96.9011%
Source Step = 96.9573%
Source Step = 97.0134%
Source Step = 97.0696%
Source Step = 97.1258%
Source Step = 97.182%
Source Step = 97.2382%
Source Step = 97.2943%
Source Step = 97.3505%
Source Step = 97.4067%
Source Step = 97.4629%
Source Step = 97.5191%
Source Step = 97.5752%
Source Step = 97.6314%
Source Step = 97.6876%
Source Step = 97.7438%
Source Step = 97.8%
Source Step = 97.8561%
Source Step = 97.9123%
Source Step = 97.9685%
Source Step = 98.0247%
Source Step = 98.0809%
Source Step = 98.137%
Source Step = 98.1932%
Source Step = 98.2494%
Source Step = 98.3056%
Source Step = 98.3618%
Source Step = 98.4179%
Source Step = 98.4741%
Source Step = 98.5303%
Source Step = 98.5865%
Source Step = 98.6427%
Source Step = 98.6988%
Source Step = 98.755%
Source Step = 98.8112%
Source Step = 98.8674%
Source Step = 98.9236%
Source Step = 98.9797%
Source Step = 99.0359%
Source Step = 99.0921%
Source Step = 99.1483%
Source Step = 99.2045%
Source Step = 99.2606%
Source Step = 99.3168%
Source Step = 99.373%
Source Step = 99.4292%
Source Step = 99.4854%
Source Step = 99.5415%
Source Step = 99.5977%
Source Step = 99.6539%
Source Step = 99.7101%
Source Step = 99.7663%
Source Step = 99.8224%
Source Step = 99.8786%
Source Step = 99.9348%
Source Step = 99.991%
Source Step = 100%
Source Step = 100%
Source Step = 100%
Source Step = 100%
Source Step = 100%
Source Step = 100%
Source Step = 100%
Source Step = 100%
Source Step = 100%
Source Step = 100%
Source Step = 100%
Source Step = 100%
Source Step = 100%
Source Step = 100%
Source Step = 100%
Source Step = 100%
Source Step = 100%
Source Step = 100%
Source Step = 100%
Source Step = 100%
Source Step = 100%
Source Step = 100%
Source Step = 100%
Source Step = 100%
Source Step = 100%
Source Step = 100%
Source Step = 100%
Source Step = 100%
Source Step = 100%
Source Step = 100%
Source Step = 100%
Source Step = 100%
Source Step = 100%
Source Step = 100%
Source Step = 100%
Source Step = 100%
Source Step = 100%
Source Step = 100%
Source Step = 100%
Source Step = 100%
Source Step = 100%
Source Step = 100%
Source Step = 100%
Source Step = 100%
Source Step = 100%
Source Step = 100%
Source Step = 100%
Source Step = 100%
Source Step = 100%
Source Step = 100%
Source Step = 100%
Source Step = 100%
Source Step = 100%
Source Step = 100%
Source Step = 100%
Source Step = 100%
Source Step = 100%
Source Step = 100%
Source Step = 100%
Source Step = 100%
Source Step = 100%
Source Step = 100%
Source Step = 100%
Source Step = 100%
Source Step = 100%
Source Step = 100%
Source Step = 100%
Source Step = 100%
Source Step = 100%
Source Step = 100%
Source Step = 100%
Source Step = 100%
Source Step = 100%
Source Step = 100%
Source Step = 100%
Source Step = 100%
Source Step = 100%
Source Step = 100%
Source Step = 100%
Source Step = 100%
Source Step = 100%
Source Step = 100%
Source Step = 100%
Source Step = 100%
Source Step = 100%
Source Step = 100%
Source Step = 100%
Source Step = 100%
Source Step = 100%
Source Step = 100%
Source Step = 100%
Source Step = 100%
Source Step = 100%
Source Step = 100%
Source Step = 100%
Source Step = 100%
Source Step = 100%
Source Step = 100%
Source Step = 100%
Source Step = 100%
Source Step = 100%
Source Step = 100%
Source Step = 100%
Source Step = 100%
Source Step = 100%
Source Step = 100%
Source Step = 100%
Source Step = 100%
Source Step = 100%
Source Step = 100%
Source Step = 100%
Source Step = 100%
Source Step = 100%
Source Step = 100%
Source Step = 100%
Source Step = 100%
Source Step = 100%
Source Step = 100%
Source Step = 100%
Source Step = 100%
Source Step = 100%
Source Step = 100%
Source Step = 100%
Source Step = 100%
Source Step = 100%
Source Step = 100%
Source Step = 100%
Source Step = 100%
Source Step = 100%
Source Step = 100%
Source Step = 100%
Source Step = 100%
Source Step = 100%
Source Step = 100%
Source Step = 100%
Source Step = 100%
Source Step = 100%
Source Step = 100%
Source Step = 100%
Source Step = 100%
Source Step = 100%
Source Step = 100%
Source Step = 100%
Source Step = 100%
Source Step = 100%
Source Step = 100%
Source Step = 100%
Source Step = 100%
Source Step = 100%
Source Step = 100%
Source Step = 100%
Source Step = 100%
Source Step = 100%
Source Step = 100%
Source Step = 100%
Source Step = 100%
Source Step = 100%
Source Step = 100%
Source Step = 100%
Source Step = 100%
Source Step = 100%
Source Step = 100%
Source Step = 100%
Source Step = 100%
Source Step = 100%
Source Step = 100%
Source Step = 100%
Source Step = 100%
Source Step = 100%
Source Step = 100%
Source Step = 100%
Source Step = 100%
Source Step = 100%
Source Step = 100%
Source Step = 100%
Source Step = 100%
Source Step = 100%
Source Step = 100%
Source Step = 100%
Source Step = 100%
Source Step = 100%
Source Step = 100%
Source Step = 100%
Source Step = 100%
Source Step = 100%
Source Step = 100%
Source Step = 100%
Source Step = 100%
Source Step = 100%
Source Step = 100%
Source Step = 100%
Source Step = 100%
Source Step = 100%
Source Step = 100%
Source Step = 100%
Source Step = 100%
Source Step = 100%
Source Step = 100%
Source Step = 100%
Source Step = 100%
Source Step = 100%
Source Step = 100%
Source Step = 100%
Source Step = 100%
Source Step = 100%
Source Step = 100%
Source Step = 100%
Source Step = 100%
Source Step = 100%
Source Step = 100%
Source Step = 100%
Source Step = 100%
Source Step = 100%
Source Step = 100%
Source Step = 100%
Source Step = 100%
Source Step = 100%
Source Step = 100%
Source Step = 100%
Source Step = 100%
Source Step = 100%
Source Step = 100%
Source Step = 100%
Source Step = 100%
Source Step = 100%
Source Step = 100%
Source Step = 100%
Source Step = 100%
Source Step = 100%
Source Step = 100%
Source Step = 100%
Source Step = 100%
Source Step = 100%
Source Step = 100%
Source Step = 100%
Source Step = 100%
Source Step = 100%
Source Step = 100%
Source Step = 100%
Source Step = 100%
Source Step = 100%
Source Step = 100%
Source Step = 100%
Source Step = 100%
Source Step = 100%
Source Step = 100%
Source Step = 100%
Source Step = 100%
Source Step = 100%
Source Step = 100%
Source Step = 100%
Source Step = 100%
Source Step = 100%
Source Step = 100%
Source Step = 100%
Source Step = 100%
Source Step = 100%
Source Step = 100%
Source Step = 100%
Source Step = 100%
Source Step = 100%
Source Step = 100%
Source Step = 100%
Source Step = 100%
Source Step = 100%
Source Step = 100%
Source Step = 100%
Source Step = 100%
Source Step = 100%
Source Step = 100%
Source Step = 100%
Source Step = 100%
Source Step = 100%
Source Step = 100%
Source Step = 100%
Source Step = 100%
Source Step = 100%
Source Step = 100%
Source Step = 100%
Source Step = 100%
Source Step = 100%
Source Step = 100%
Source Step = 100%
Source Step = 100%
Source Step = 100%
Source Step = 100%
Source Step = 100%
Source Step = 100%
Source Step = 100%
Source Step = 100%
Source Step = 100%
Source Step = 100%
Source Step = 100%
Source Step = 100%
Source Step = 100%
Source Step = 100%
Source Step = 100%
Source Step = 100%
Source Step = 100%
Source Step = 100%
Source Step = 100%
Source Step = 100%
Source Step = 100%
Source Step = 100%
Source Step = 100%
Source Step = 100%
Source Step = 100%
Source Step = 100%
Source Step = 100%
Source Step = 100%
Source Step = 100%
Source Step = 100%
Source Step = 100%
Source Step = 100%
Source Step = 100%
Source Step = 100%
Source Step = 100%
Source Step = 100%
Source Step = 100%
Source Step = 100%
Source Step = 100%
Source Step = 100%
Source Step = 100%
Source Step = 100%
Source Step = 100%
Source Step = 100%
Source Step = 100%
Source Step = 100%
Source Step = 100%
Source Step = 100%
Source Step = 100%
Source Step = 100%
Source Step = 100%
Source Step = 100%
Source Step = 100%
Source Step = 100%
Source Step = 100%
Source Step = 100%
Source Step = 100%
Source Step = 100%
Source Step = 100%
Source Step = 100%
Source Step = 100%
Source Step = 100%
Source Step = 100%
Source Step = 100%
Source Step = 100%
Source Step = 100%
Source Step = 100%
Source Step = 100%
Source Step = 100%
Source Step = 100%
Source Step = 100%
Source Step = 100%
Source Step = 100%
Source Step = 100%
Source Step = 100%
Source Step = 100%
Source Step = 100%
Source Step = 100%
Source Step = 100%
Source Step = 100%
Source Step = 100%
Source Step = 100%
Source Step = 100%
Source Step = 100%
Source Step = 100%
Source Step = 100%
Source Step = 100%
Source Step = 100%
Source Step = 100%
Source Step = 100%
Source stepping aborted.
Pseudo Transient failed in finding the operating point at 5.00078 µs.
Trouble finding operating point....skipping operating point for Transient analysis.
Changing Tseed to 9.76562e-08
Changing Tseed to 9.76562e-10
Changing Tseed to 9.76562e-07
Changing Tseed to 9.76562e-11
Changing Tseed to 9.76562e-06
Changing Tseed to 9.76562e-12
Changing Tseed to 9.76562e-05
Changing Tseed to 9.76562e-13
Changing Tseed to 0.000976562
Changing Tseed to 9.76562e-14
Changing Tseed to 0.00976562
Changing Tseed to 9.76562e-15
Fatal Error: Analysis:  Time step too small; initial timepoint: trouble with node "u1:amp:13"

