Circuit: * D:\NixieClock_STM32\LTspice\Draft3.asc

.OP point found by inspection.

Date: Sun May 21 19:25:54 2023
Total elapsed time: 0.033 seconds.

tnom = 27
temp = 27
method = trap
totiter = 0
traniter = 0
tranpoints = 0
accept = 0
rejected = 0
matrix size = 3
fillins = 0
solver = Normal
Avg thread counts: 4.0/0.0/0.0/1.5
Matrix Compiler1:       4 opcodes
Matrix Compiler2:      15 opcodes
