Circuit: * D:\NixieClock_STM32\LTspice\Draft4.asc

Direct Newton iteration for .op point succeeded.

Date: Mon May 22 21:40:39 2023
Total elapsed time: 0.015 seconds.

tnom = 27
temp = 27
method = trap
totiter = 3
traniter = 0
tranpoints = 0
accept = 0
rejected = 0
matrix size = 6
fillins = 0
solver = Normal
Avg thread counts: 4.0/0.0/4.0/1.4
Matrix Compiler1:       9 opcodes
Matrix Compiler2: 380 bytes object code size
