Circuit: * D:\NixieClock_STM32\LTspice\Draft2.asc

Warning: Multiple definitions of model "2scr375p" Type: BJT
Warning: Multiple definitions of model "bc857b" Type: BJT
Warning: Multiple definitions of model "bc847c" Type: BJT
Warning: Multiple definitions of model "bc847b" Type: BJT
Limiting rise time of source v2 to 2e-06
Limiting fall time of source v2 to 2e-06
Direct Newton iteration for .op point succeeded.

Date: Tue May 16 21:48:06 2023
Total elapsed time: 4.801 seconds.

tnom = 27
temp = 27
method = modified trap
totiter = 1816282
traniter = 1816264
tranpoints = 680711
accept = 486522
rejected = 194189
matrix size = 13
fillins = 2
solver = Normal
Avg thread counts: 1.0/1.0/1.0/1.0
Matrix Compiler1: 834 bytes object code size  0.3/0.3/[0.2]
Matrix Compiler2: 1.00 KB object code size  0.2/0.3/[0.2]

