Circuit: * D:\NixieClock_STM32\LTspice\LT1243_Async_CCM_Peak_Current_180V.asc

Direct Newton iteration for .op point succeeded.

Date: Thu May 18 19:09:19 2023
Total elapsed time: 43.123 seconds.

tnom = 27
temp = 27
method = modified trap
totiter = 2583302
traniter = 2583275
tranpoints = 1128457
accept = 788483
rejected = 339974
matrix size = 39
fillins = 8
solver = Normal
Avg thread counts: 2.0/1.0/1.0/1.0
Matrix Compiler1: 2.00 KB object code size  0.7/0.6/[0.3]
Matrix Compiler2: 2.78 KB object code size  0.7/0.9/[0.4]

