Circuit: * D:\NixieClock_STM32\LTspice\LT1243_Async_CCM_Peak_Current_180V.asc

Direct Newton iteration for .op point succeeded.
Heightened Def Con from 0.00475727 to 0.00475727

Date: Sun May 14 11:03:53 2023
Total elapsed time: 3.692 seconds.

tnom = 27
temp = 27
method = modified trap
totiter = 419179
traniter = 419152
tranpoints = 185154
accept = 129890
rejected = 55265
matrix size = 39
fillins = 8
solver = Normal
Avg thread counts: 1.0/1.0/1.0/1.0
Matrix Compiler1: 2.00 KB object code size  0.8/0.6/[0.3]
Matrix Compiler2: 2.78 KB object code size  0.6/0.8/[0.3]

